FoamFile{version 2.0;format ascii;class volVectorField;location 0;object Uw;}

dimensions [0 1 -1 0 0 0 0];

internalField uniform (0 0 0);

boundaryField
{
  top
  {
    type zeroGradient;
  }
  bottom
  {
    type zeroGradient;
  }
  bc0
  {
    type zeroGradient;
  }
  bc1
  {
    type zeroGradient;
  }
  bc2
  {
    type zeroGradient;
  }
  bc3
  {
    type zeroGradient;
  }
}