FoamFile 
{ version 2.0;
 format ascii;
 class polyBoundaryMesh;
 location  "constant/polyMesh";
 object boundary;
}
6
 (
bc0 {type patch;nFaces 100;startFace 99;}
bc1 {type patch;nFaces 1;startFace 199;}
bc2 {type patch;nFaces 100;startFace 200;}
bc3 {type patch;nFaces 1;startFace 300;}
top {type patch;startFace 301;nFaces  100;}
bottom {type patch;startFace 401;nFaces  100;}
)