FoamFile 
{ version 2.0;
 format ascii;
 class polyBoundaryMesh;
 location  "constant/polyMesh";
 object boundary;
}
6
 (
bc0 {type patch;nFaces 101;startFace 35087;}
bc1 {type patch;nFaces 101;startFace 35188;}
bc2 {type patch;nFaces 101;startFace 35289;}
bc3 {type patch;nFaces 101;startFace 35390;}
top {type patch;startFace 35491;nFaces  11830;}
bottom {type patch;startFace 47321;nFaces  11830;}
)