FoamFile{version 2.0;format ascii;class volScalarField;location 0;object h;}

dimensions [0 1 0 0 0 0 0];

internalField uniform 0;

boundaryField
{
  top
  {
    type zeroGradient;
  }
  bottom
  {
    type zeroGradient;
  }
  bc0
  {
    type fixedGradient;
    gradient uniform -1;
  }
  bc1
  {
    type zeroGradient;
  }
  bc2
  {
    type zeroGradient;
  }
  bc3
  {
    type zeroGradient;
  }
}