FoamFile{version 2.0;format ascii;class volScalarField;location 0;object sw;}

dimensions [0 0 0 0 0 0 0];

internalField uniform 1.0;

boundaryField
{
  top
  {
    type zeroGradient;
  }
  bottom
  {
    type zeroGradient;
  }
  bc0
  {
    type zeroGradient;
  }
  bc1
  {
    type zeroGradient;
  }
  bc2
  {
    type zeroGradient;
  }
  bc3
  {
    type zeroGradient;
  }
}