FoamFile{version 2.0;format ascii;class volScalarField;location constant;object eps;}

dimensions [0 0 0 0 0 0 0];

internalField uniform 0.3;

boundaryField
{
  top
  {
    type zeroGradient;
  }
  bottom
  {
    type zeroGradient;
  }
  bc0
  {
    type zeroGradient;
  }
  bc1
  {
    type zeroGradient;
  }
  bc2
  {
    type zeroGradient;
  }
  bc3
  {
    type zeroGradient;
  }
}