FoamFile{version 2.0;format ascii;class dictionary;location "constant";object fvOptions;}
hFix 
{type scalarmyFixedValueConstraint;
active true;
selectionMode cellSet;
cellSet hfix;
volumeMode absolute;
fieldValues {hp 1;}
}
hSouwel 
{type scalarmySemiImplicitSource;
active true;
selectionMode cellSet;
cellSet hwel;
volumeMode absolute;
injectionRateSuSp {sw (1 0);hp (1 0);}
}
cfix0 {type scalarmyFixedValueConstraint; active true;selectionMode cellSet; cellSet cfix; volumeMode absolute;fieldValues {Cw0 1;}}
cfix1 {type scalarmyFixedValueConstraint; active true;selectionMode cellSet; cellSet cfix; volumeMode absolute;fieldValues {Cw1 1;}}
cfix2 {type scalarmyFixedValueConstraint; active true;selectionMode cellSet; cellSet cfix; volumeMode absolute;fieldValues {Cw2 1;}}
cfix3 {type scalarmyFixedValueConstraint; active true;selectionMode cellSet; cellSet cfix; volumeMode absolute;fieldValues {Cw3 1;}}
cfix4 {type scalarmyFixedValueConstraint; active true;selectionMode cellSet; cellSet cfix; volumeMode absolute;fieldValues {Cw4 1;}}
cfix5 {type scalarmyFixedValueConstraint; active true;selectionMode cellSet; cellSet cfix; volumeMode absolute;fieldValues {Cw5 1;}}
cfix6 {type scalarmyFixedValueConstraint; active true;selectionMode cellSet; cellSet cfix; volumeMode absolute;fieldValues {Cw6 1;}}
cfix7 {type scalarmyFixedValueConstraint; active true;selectionMode cellSet; cellSet cfix; volumeMode absolute;fieldValues {Cw7 1;}}
cfix8 {type scalarmyFixedValueConstraint; active true;selectionMode cellSet; cellSet cfix; volumeMode absolute;fieldValues {Cw8 1;}}
cfix9 {type scalarmyFixedValueConstraint; active true;selectionMode cellSet; cellSet cfix; volumeMode absolute;fieldValues {Cw9 1;}}
cfix10 {type scalarmyFixedValueConstraint; active true;selectionMode cellSet; cellSet cfix; volumeMode absolute;fieldValues {Cw10 1;}}
cwel0 {type scalarmySemiImplicitSource; active true;selectionMode cellSet; cellSet cwel; volumeMode absolute;injectionRateSuSp {sw (1 0); Cw0 (1 1);}}
cwel1 {type scalarmySemiImplicitSource; active true;selectionMode cellSet; cellSet cwel; volumeMode absolute;injectionRateSuSp {sw (1 0); Cw1 (1 1);}}
cwel2 {type scalarmySemiImplicitSource; active true;selectionMode cellSet; cellSet cwel; volumeMode absolute;injectionRateSuSp {sw (1 0); Cw2 (1 1);}}
cwel3 {type scalarmySemiImplicitSource; active true;selectionMode cellSet; cellSet cwel; volumeMode absolute;injectionRateSuSp {sw (1 0); Cw3 (1 1);}}
cwel4 {type scalarmySemiImplicitSource; active true;selectionMode cellSet; cellSet cwel; volumeMode absolute;injectionRateSuSp {sw (1 0); Cw4 (1 1);}}
cwel5 {type scalarmySemiImplicitSource; active true;selectionMode cellSet; cellSet cwel; volumeMode absolute;injectionRateSuSp {sw (1 0); Cw5 (1 1);}}
cwel6 {type scalarmySemiImplicitSource; active true;selectionMode cellSet; cellSet cwel; volumeMode absolute;injectionRateSuSp {sw (1 0); Cw6 (1 1);}}
cwel7 {type scalarmySemiImplicitSource; active true;selectionMode cellSet; cellSet cwel; volumeMode absolute;injectionRateSuSp {sw (1 0); Cw7 (1 1);}}
cwel8 {type scalarmySemiImplicitSource; active true;selectionMode cellSet; cellSet cwel; volumeMode absolute;injectionRateSuSp {sw (1 0); Cw8 (1 1);}}
cwel9 {type scalarmySemiImplicitSource; active true;selectionMode cellSet; cellSet cwel; volumeMode absolute;injectionRateSuSp {sw (1 0); Cw9 (1 1);}}
cwel10 {type scalarmySemiImplicitSource; active true;selectionMode cellSet; cellSet cwel; volumeMode absolute;injectionRateSuSp {sw (1 0); Cw10 (1 1);}}
gfix0 {type scalarmyFixedValueConstraint; active true;selectionMode cellSet; cellSet gfix; volumeMode absolute;fieldValues {Cg0 1;}}
gfix1 {type scalarmyFixedValueConstraint; active true;selectionMode cellSet; cellSet gfix; volumeMode absolute;fieldValues {Cg1 1;}}
gfix2 {type scalarmyFixedValueConstraint; active true;selectionMode cellSet; cellSet gfix; volumeMode absolute;fieldValues {Cg2 1;}}
gfix3 {type scalarmyFixedValueConstraint; active true;selectionMode cellSet; cellSet gfix; volumeMode absolute;fieldValues {Cg3 1;}}
