/*--------------------------------*- C++ -*----------------------------------*\
  =========                 |
  \\      /  F ield         | OpenFOAM: The Open Source CFD Toolbox
   \\    /   O peration     | Website:  https://openfoam.org
    \\  /    A nd           | Version:  6
     \\/     M anipulation  |
\*---------------------------------------------------------------------------*/
FoamFile
{
    version     2.0;
    format      ascii;
    class       dictionary;
    location    "constant";
    object      fvOptions;
}
// * * * * * * * * * * * * * * * * * * * * * * * * * * * * * * * * * * * * * //

injector1
{
    timeStart       0.1;
    duration        5000;
    selectionMode   points;
    points
    (
        (0.025 0.025 0.41)
    );
}

options
{
/*    massSource1
    {
        type            scalarSemiImplicitSource;

        $injector1;

        volumeMode      absolute;
        injectionRateSuSp
        {
            Ca     (1e-5 0); // kg/s
        }
    }
*/
    momentumSource1
    {
        type            scalarSemiImplicitSource;

        $injector1;

        volumeMode      absolute;
        injectionRateSuSp
        {
            p     (0 0); // kg/s
        }
    }
}


// ************************************************************************* //
