FoamFile{version 2.0;format ascii;class volScalarField;location constant;object Kh;}

dimensions [0 2 0 0 0 0 0];

internalField uniform 2.359648129270963e-13;

boundaryField
{
  top
  {
    type zeroGradient;
  }
  bottom
  {
    type zeroGradient;
  }
  bc0
  {
    type zeroGradient;
  }
  bc1
  {
    type zeroGradient;
  }
  bc2
  {
    type zeroGradient;
  }
  bc3
  {
    type zeroGradient;
  }
}